Version 4
SHEET 1 1364 764
WIRE 352 -144 -480 -144
WIRE 896 -144 816 -144
WIRE 1056 -144 976 -144
WIRE -1296 -96 -1376 -96
WIRE -1296 -64 -1296 -96
WIRE 96 -48 -112 -48
WIRE -112 -16 -112 -48
WIRE 176 -16 -16 -16
WIRE 400 -16 176 -16
WIRE 512 -16 400 -16
WIRE 656 -16 512 -16
WIRE 816 -16 816 -144
WIRE 816 -16 736 -16
WIRE 912 -16 816 -16
WIRE 1056 -16 1056 -144
WIRE 1056 -16 976 -16
WIRE 96 16 96 -48
WIRE 1056 16 1056 -16
WIRE 400 32 400 -16
WIRE 512 32 512 -16
WIRE -1376 48 -1376 -16
WIRE -480 64 -480 -144
WIRE -112 80 -112 64
WIRE -16 128 -16 -16
WIRE 64 128 -16 128
WIRE -1408 160 -1504 160
WIRE 352 160 352 -144
WIRE 352 160 336 160
WIRE 400 160 400 96
WIRE 400 160 352 160
WIRE 512 160 512 112
WIRE 512 160 400 160
WIRE 656 160 512 160
WIRE 816 160 816 -16
WIRE 816 160 736 160
WIRE 928 160 816 160
WIRE 1024 160 992 160
WIRE 1184 160 1024 160
WIRE -816 192 -1136 192
WIRE -752 192 -816 192
WIRE -672 192 -752 192
WIRE -608 192 -672 192
WIRE -480 192 -480 128
WIRE -480 192 -528 192
WIRE -432 192 -480 192
WIRE -304 192 -352 192
WIRE -240 192 -304 192
WIRE 64 192 -160 192
WIRE 1184 208 1184 160
WIRE -1664 224 -1856 224
WIRE -1408 224 -1584 224
WIRE -304 304 -304 192
WIRE -1216 336 -1280 336
WIRE -816 336 -816 192
WIRE -816 336 -1216 336
WIRE 96 336 96 304
WIRE 1184 368 1184 288
WIRE -1376 384 -1376 336
WIRE -1088 416 -1120 416
WIRE -816 416 -816 336
WIRE -816 416 -896 416
WIRE -1856 432 -1856 224
WIRE -1280 432 -1280 336
WIRE -304 432 -304 368
WIRE -1120 480 -1120 416
WIRE -1088 480 -1120 480
WIRE -848 480 -896 480
WIRE -1376 496 -1376 464
WIRE -1088 544 -1136 544
WIRE -848 544 -848 480
WIRE -848 544 -896 544
WIRE -1856 576 -1856 512
WIRE -1504 608 -1504 160
WIRE -1280 608 -1280 496
WIRE -1280 608 -1504 608
WIRE -1216 608 -1216 336
WIRE -1216 608 -1280 608
WIRE -1136 608 -1136 544
WIRE -1088 608 -1136 608
WIRE -816 608 -896 608
WIRE -816 656 -816 608
WIRE -992 720 -992 656
WIRE -752 720 -752 192
WIRE -752 720 -992 720
FLAG 1184 368 0
FLAG -112 80 0
FLAG 96 416 0
FLAG -1856 576 0
FLAG 176 -16 Sense
FLAG 400 160 Force
FLAG -304 432 0
FLAG -672 192 IN
FLAG 1056 16 0
FLAG -816 656 0
FLAG -1376 496 0
FLAG -1296 -64 0
FLAG 1024 160 OUT
DATAFLAG 1264 256 "-I(R_ext_reference)"
DATAFLAG 816 64 ""
DATAFLAG 640 112 "V(force)-V(sense)"
DATAFLAG 336 -16 ""
DATAFLAG -816 192 ""
DATAFLAG 528 160 ""
DATAFLAG 1184 160 "V(in)-V(out)"
SYMBOL OpAmps\\LTC2057HV 224 160 R0
SYMATTR InstName IC2
SYMBOL cap 384 32 R0
SYMATTR InstName C6
SYMATTR Value 1µ
SYMBOL res -144 176 R90
WINDOW 0 -18 55 VBottom 2
WINDOW 3 32 56 VTop 2
SYMATTR InstName R6
SYMATTR Value 1k
SYMBOL res 752 144 R90
WINDOW 0 64 99 VBottom 2
WINDOW 3 36 34 VTop 2
SYMATTR InstName R17
SYMATTR Value 200R
SYMBOL res 752 -32 R90
WINDOW 0 -4 97 VBottom 2
WINDOW 3 -33 47 VTop 2
SYMATTR InstName R18
SYMATTR Value 1K
SYMBOL res 1200 304 R180
WINDOW 0 40 62 Left 2
WINDOW 3 36 40 Left 2
SYMATTR InstName R_ext_reference
SYMATTR Value 10Meg
SYMBOL voltage -112 -32 R0
WINDOW 123 0 0 Left 0
WINDOW 39 0 0 Left 0
SYMATTR InstName V1
SYMATTR Value 30V
SYMBOL voltage 96 432 R180
WINDOW 0 24 96 Left 2
WINDOW 3 24 16 Left 2
WINDOW 123 0 0 Left 0
WINDOW 39 0 0 Left 0
SYMATTR InstName V2
SYMATTR Value 30V
SYMBOL voltage -1856 416 R0
WINDOW 123 0 0 Left 0
WINDOW 39 0 0 Left 0
WINDOW 3 24 44 Left 2
SYMATTR Value 6.5
SYMATTR InstName V3
SYMBOL current 512 112 R180
WINDOW 0 -243 64 Left 2
WINDOW 3 -111 38 Left 2
WINDOW 123 0 0 Left 0
WINDOW 39 0 0 Left 0
SYMATTR InstName I_bav99_leakage
SYMATTR Value 700p
SYMBOL cap -496 64 R0
SYMATTR InstName C4
SYMATTR Value 2.2µ
SYMBOL cap -320 304 R0
SYMATTR InstName C2
SYMATTR Value 2.2µ
SYMBOL res -336 176 R90
WINDOW 0 0 56 VBottom 2
WINDOW 3 32 56 VTop 2
SYMATTR InstName R5
SYMATTR Value 11k
SYMBOL res -512 176 R90
WINDOW 0 0 56 VBottom 2
WINDOW 3 32 56 VTop 2
SYMATTR InstName R4
SYMATTR Value 12k
SYMBOL cap 976 -32 R90
WINDOW 0 0 32 VBottom 2
WINDOW 3 32 32 VTop 2
SYMATTR InstName C1
SYMATTR Value 680n
SYMBOL OpAmps\\LTC2057HV -1248 192 R0
SYMATTR InstName U1
SYMBOL Misc\\LT5400-1 -992 512 R0
SYMATTR InstName U2
SYMBOL res -1568 208 R90
WINDOW 0 0 56 VBottom 2
WINDOW 3 32 56 VTop 2
SYMATTR InstName R1
SYMATTR Value 4.5k
SYMBOL cap -1296 432 R0
SYMATTR InstName C3
SYMATTR Value 1n
SYMBOL voltage -1376 480 R180
WINDOW 0 24 96 Left 2
WINDOW 3 24 16 Left 2
WINDOW 123 0 0 Left 0
WINDOW 39 0 0 Left 0
SYMATTR InstName V4
SYMATTR Value 30V
SYMBOL voltage -1376 0 R180
WINDOW 0 24 96 Left 2
WINDOW 3 24 16 Left 2
WINDOW 123 0 0 Left 0
WINDOW 39 0 0 Left 0
SYMATTR InstName V5
SYMATTR Value 30V
SYMBOL current 896 -144 R270
WINDOW 0 32 40 VTop 2
WINDOW 3 -32 40 VBottom 2
WINDOW 123 0 0 Left 0
WINDOW 39 0 0 Left 0
SYMATTR InstName I_lin_par_1V/s
SYMATTR Value 0.68µ
SYMBOL FerriteBead 960 160 R90
WINDOW 0 -16 0 VBottom 2
SYMATTR InstName L1
SYMATTR Value 1.59µ
SYMATTR SpiceLine Ipk=0.2 Rser=75m Cpar=0
TEXT -432 504 Left 2 !;tran 5
TEXT 1136 120 Left 2 ;V(in)-V(out)
TEXT 176 560 Left 2 !.noise V(OUT) V3 dec 1000 1m 100k
